OPT_V10/Two_days_MYC3/powerflow_results_t43.txt
Pandapower Network Debug Info
==================================================

BUS:
       vm_pu  va_degree      p_mw    q_mvar
0   0.992957   0.104424  0.001062  0.001189
1   0.988820   0.196167  0.001362  0.001837
2   0.985053   0.296334  0.001637  0.003159
3   0.989015   0.136576  0.003232  0.003345
4   0.999887   0.000966  0.011218  0.010582
5   0.999875   0.001065  0.009253  0.010057
6   0.999866   0.001127  0.010731  0.010549
7   0.999930   0.000662  0.000000  0.000000
8   0.999930   0.000668  0.000000  0.000000
9   1.000000   0.000000 -0.038636 -0.045813
10  1.000000   0.000006  0.000000  0.000000
--------------------------------------------------

LINE:
   p_from_mw  q_from_mvar   p_to_mw  q_to_mvar         pl_mw       ql_mvar  i_from_ka   i_to_ka      i_ka  vm_from_pu  va_from_degree  vm_to_pu  va_to_degree  loading_percent
0   0.038626     0.041813 -0.038622  -0.041811  3.169414e-06  2.471244e-06   0.002191  0.002191  0.002191    1.000000        0.000006  0.999930      0.000662         0.952600
1   0.031204     0.031190 -0.031202  -0.031189  1.505390e-06  1.173777e-06   0.001698  0.001698  0.001698    0.999930        0.000662  0.999887      0.000966         0.738373
2   0.007409     0.009621 -0.007340  -0.009567  6.897501e-05  5.378095e-05   0.017528  0.017528  0.017528    0.999930        0.000668  0.992957      0.104424         7.620864
3  -0.019983    -0.020607  0.019984   0.020607  2.850207e-07  2.222353e-07   0.001105  0.001105  0.001105    0.999875        0.001065  0.999887      0.000966         0.480432
4  -0.010731    -0.010549  0.010731   0.010550  1.107721e-07  8.637082e-08   0.000579  0.000579  0.000579    0.999866        0.001127  0.999875      0.001065         0.251855
5  -0.003011    -0.005005  0.003031   0.005021  2.063976e-05  1.609316e-05   0.008525  0.008525  0.008525    0.988820        0.196167  0.992957      0.104424         3.706642
6  -0.003232    -0.003345  0.003247   0.003357  1.476828e-05  1.151507e-05   0.006788  0.006788  0.006788    0.989015        0.136576  0.992957      0.104424         2.951419
7  -0.001637    -0.003159  0.001649   0.003168  1.180128e-05  9.201649e-06   0.005213  0.005213  0.005213    0.985053        0.296334  0.988820      0.196167         2.266675
--------------------------------------------------

TRAFO:
    p_hv_mw  q_hv_mvar   p_lv_mw  q_lv_mvar    pl_mw  ql_mvar   i_hv_ka   i_lv_ka  vm_hv_pu  va_hv_degree  vm_lv_pu  va_lv_degree  loading_percent
0  0.007419   0.010621 -0.007409  -0.009621  0.00001    0.001  0.000499  0.017528   0.99993      0.000662   0.99993      0.000668         0.129561
1  0.038636   0.045813 -0.038626  -0.041813  0.00001    0.004  0.000494  0.002191   1.00000      0.000000   1.00000      0.000006         0.149824
--------------------------------------------------
